  
       XFOIL         Version 6.99
  
 Calculated polar for: NACA 2218                                       
  
 1 1 Reynolds number fixed          Mach number fixed         
  
 xtrf =   0.020 (top)        1.000 (bottom)  
 Mach =   0.000     Re =     0.300 e 6     Ncrit =  12.000
  
   alpha    CL        CD       CDp       CM     Top_Xtr  Bot_Xtr
  ------ -------- --------- --------- -------- -------- --------
   4.572   0.8000   0.01796   0.00864  -0.0481   0.0204   0.9991
