  
       XFOIL         Version 6.99
  
 Calculated polar for: NACA 2218                                       
  
 1 1 Reynolds number fixed          Mach number fixed         
  
 xtrf =   0.061 (top)        1.000 (bottom)  
 Mach =   0.000     Re =     0.300 e 6     Ncrit =  12.000
  
   alpha    CL        CD       CDp       CM     Top_Xtr  Bot_Xtr
  ------ -------- --------- --------- -------- -------- --------
   4.547   0.8000   0.01743   0.00827  -0.0483   0.0612   0.9983
