  
       XFOIL         Version 6.99
  
 Calculated polar for: NACA 2218                                       
  
 1 1 Reynolds number fixed          Mach number fixed         
  
 xtrf =   0.571 (top)        1.000 (bottom)  
 Mach =   0.000     Re =     0.300 e 6     Ncrit =  12.000
  
   alpha    CL        CD       CDp       CM     Top_Xtr  Bot_Xtr
  ------ -------- --------- --------- -------- -------- --------
   4.373   0.8000   0.01518   0.00810  -0.0487   0.3580   0.9914
