  
       XFOIL         Version 6.99
  
 Calculated polar for: modified                                        
  
 1 1 Reynolds number fixed          Mach number fixed         
  
 xtrf =   1.000 (top)        1.000 (bottom)  
 Mach =   0.000     Re =     0.800 e 6     Ncrit =   9.000
  
   alpha    CL        CD       CDp       CM     Top_Xtr  Bot_Xtr
  ------ -------- --------- --------- -------- -------- --------
  -2.000   0.0593   0.00724   0.00259  -0.0611   0.8238   0.5026
  -1.900   0.0700   0.00718   0.00254  -0.0609   0.8206   0.5093
  -1.800   0.0789   0.00702   0.00249  -0.0605   0.8187   0.5401
  -1.700   0.0881   0.00694   0.00246  -0.0601   0.8151   0.5575
  -1.600   0.0976   0.00684   0.00242  -0.0597   0.8117   0.5750
  -1.500   0.1068   0.00671   0.00238  -0.0593   0.8097   0.6024
  -1.400   0.1159   0.00662   0.00236  -0.0589   0.8063   0.6216
  -1.300   0.1262   0.00657   0.00233  -0.0587   0.8018   0.6303
  -1.200   0.1353   0.00648   0.00230  -0.0582   0.7974   0.6523
  -1.100   0.1455   0.00643   0.00230  -0.0580   0.7956   0.6655
  -1.000   0.1550   0.00634   0.00225  -0.0575   0.7907   0.6839
  -0.900   0.1654   0.00632   0.00225  -0.0574   0.7863   0.6908
  -0.800   0.1754   0.00627   0.00223  -0.0571   0.7816   0.7049
  -0.700   0.1848   0.00623   0.00222  -0.0566   0.7747   0.7194
  -0.500   0.2049   0.00617   0.00221  -0.0560   0.7653   0.7441
  -0.300   0.2243   0.00616   0.00219  -0.0553   0.7489   0.7628
  -0.200   0.2344   0.00616   0.00220  -0.0550   0.7436   0.7721
  -0.100   0.2449   0.00618   0.00220  -0.0548   0.7376   0.7764
   0.000   0.2545   0.00621   0.00221  -0.0544   0.7301   0.7851
   0.100   0.2642   0.00623   0.00223  -0.0540   0.7230   0.7938
   0.200   0.2744   0.00627   0.00223  -0.0538   0.7157   0.7969
   0.300   0.2847   0.00630   0.00225  -0.0536   0.7110   0.8003
   0.400   0.2939   0.00634   0.00229  -0.0531   0.7040   0.8129
   0.500   0.3042   0.00639   0.00230  -0.0529   0.6986   0.8156
   0.600   0.3134   0.00645   0.00234  -0.0524   0.6901   0.8206
   0.700   0.3241   0.00648   0.00236  -0.0523   0.6868   0.8257
   0.800   0.3340   0.00652   0.00240  -0.0520   0.6819   0.8318
   0.900   0.3442   0.00657   0.00242  -0.0518   0.6776   0.8352
   1.000   0.3534   0.00663   0.00247  -0.0513   0.6697   0.8407
   1.100   0.3635   0.00667   0.00249  -0.0511   0.6643   0.8433
   1.200   0.3739   0.00671   0.00253  -0.0508   0.6607   0.8475
   1.300   0.3834   0.00677   0.00256  -0.0505   0.6548   0.8511
   1.400   0.3922   0.00685   0.00260  -0.0500   0.6459   0.8544
   1.600   0.4127   0.00693   0.00267  -0.0495   0.6391   0.8624
   1.800   0.4312   0.00705   0.00274  -0.0487   0.6247   0.8668
   1.900   0.4411   0.00710   0.00277  -0.0484   0.6202   0.8693
   2.000   0.4507   0.00716   0.00283  -0.0480   0.6158   0.8734
   2.100   0.4615   0.00719   0.00286  -0.0479   0.6145   0.8760
   2.200   0.4698   0.00726   0.00289  -0.0473   0.6056   0.8794
   2.300   0.4784   0.00735   0.00297  -0.0467   0.6000   0.8833
   2.400   0.4891   0.00738   0.00300  -0.0466   0.5985   0.8855
   2.500   0.4978   0.00744   0.00305  -0.0460   0.5919   0.8893
   2.600   0.5067   0.00751   0.00310  -0.0456   0.5855   0.8910
   2.700   0.5157   0.00757   0.00314  -0.0450   0.5808   0.8957
   2.800   0.5242   0.00765   0.00321  -0.0444   0.5758   0.8982
   2.900   0.5333   0.00770   0.00326  -0.0440   0.5698   0.9007
   3.000   0.5413   0.00778   0.00331  -0.0433   0.5641   0.9043
   3.100   0.5504   0.00784   0.00336  -0.0428   0.5582   0.9060
   3.200   0.5589   0.00791   0.00341  -0.0423   0.5536   0.9083
   3.300   0.5682   0.00796   0.00345  -0.0419   0.5500   0.9116
   3.400   0.5764   0.00803   0.00352  -0.0412   0.5444   0.9137
   3.500   0.5847   0.00810   0.00356  -0.0406   0.5387   0.9158
   3.600   0.5923   0.00816   0.00362  -0.0398   0.5335   0.9194
   3.700   0.5997   0.00823   0.00367  -0.0390   0.5273   0.9208
   3.800   0.6073   0.00829   0.00372  -0.0383   0.5223   0.9233
   3.900   0.6145   0.00836   0.00377  -0.0374   0.5182   0.9262
   4.000   0.6230   0.00840   0.00381  -0.0369   0.5136   0.9276
   4.100   0.6290   0.00850   0.00387  -0.0358   0.5060   0.9298
   4.200   0.6377   0.00854   0.00391  -0.0353   0.5022   0.9323
   4.300   0.6442   0.00863   0.00398  -0.0343   0.4961   0.9343
   4.400   0.6528   0.00870   0.00403  -0.0339   0.4897   0.9354
   4.500   0.6600   0.00879   0.00410  -0.0330   0.4846   0.9384
   4.600   0.6679   0.00886   0.00416  -0.0324   0.4786   0.9404
   4.700   0.6740   0.00899   0.00425  -0.0314   0.4684   0.9425
   4.800   0.6811   0.00910   0.00432  -0.0306   0.4612   0.9449
   4.900   0.6902   0.00915   0.00438  -0.0302   0.4575   0.9465
   5.000   0.6964   0.00927   0.00447  -0.0292   0.4497   0.9489
   5.100   0.7044   0.00935   0.00453  -0.0286   0.4427   0.9512
   5.200   0.7118   0.00944   0.00461  -0.0279   0.4384   0.9531
   5.300   0.7170   0.00961   0.00471  -0.0268   0.4252   0.9554
   5.400   0.7252   0.00968   0.00478  -0.0262   0.4197   0.9578
   5.500   0.7300   0.00986   0.00489  -0.0250   0.4055   0.9601
   5.600   0.7381   0.00993   0.00495  -0.0244   0.4033   0.9627
   5.700   0.7468   0.01001   0.00503  -0.0240   0.3985   0.9643
   5.800   0.7528   0.01016   0.00513  -0.0231   0.3880   0.9669
   5.900   0.7587   0.01034   0.00525  -0.0221   0.3742   0.9693
   6.000   0.7653   0.01050   0.00536  -0.0213   0.3638   0.9719
   6.100   0.7736   0.01064   0.00546  -0.0209   0.3562   0.9737
   6.200   0.7819   0.01079   0.00558  -0.0204   0.3481   0.9759
   6.300   0.7915   0.01089   0.00567  -0.0203   0.3424   0.9777
   6.400   0.8000   0.01111   0.00581  -0.0200   0.3295   0.9794
   6.500   0.8092   0.01126   0.00593  -0.0198   0.3222   0.9814
   6.600   0.8195   0.01146   0.00608  -0.0199   0.3119   0.9825
   6.700   0.8307   0.01158   0.00619  -0.0201   0.3079   0.9837
   6.800   0.8403   0.01180   0.00634  -0.0200   0.2970   0.9852
   6.900   0.8517   0.01199   0.00649  -0.0203   0.2889   0.9861
   7.000   0.8621   0.01221   0.00665  -0.0205   0.2790   0.9872
   7.100   0.8726   0.01240   0.00680  -0.0207   0.2707   0.9884
   7.200   0.8844   0.01258   0.00696  -0.0211   0.2646   0.9890
   7.300   0.8968   0.01274   0.00709  -0.0216   0.2600   0.9896
   7.400   0.9077   0.01296   0.00726  -0.0219   0.2517   0.9904
   7.500   0.9190   0.01314   0.00741  -0.0222   0.2451   0.9912
   7.600   0.9309   0.01333   0.00757  -0.0226   0.2390   0.9917
   7.700   0.9425   0.01353   0.00773  -0.0230   0.2335   0.9923
   7.800   0.9544   0.01369   0.00788  -0.0235   0.2287   0.9929
   7.900   0.9649   0.01391   0.00806  -0.0237   0.2220   0.9938
   8.000   0.9771   0.01406   0.00820  -0.0242   0.2180   0.9943
