  
       XFOIL         Version 6.99
  
 Calculated polar for: NACA 2218                                       
  
 1 1 Reynolds number fixed          Mach number fixed         
  
 xtrf =   1.000 (top)        1.000 (bottom)  
 Mach =   0.000     Re =     0.800 e 6     Ncrit =   9.000
  
   alpha    CL        CD       CDp       CM     Top_Xtr  Bot_Xtr
  ------ -------- --------- --------- -------- -------- --------
  -2.000  -0.0162   0.00792   0.00229  -0.0334   0.6111   0.4506
  -1.900  -0.0057   0.00787   0.00228  -0.0332   0.6054   0.4616
  -1.700   0.0151   0.00784   0.00225  -0.0328   0.5933   0.4822
  -1.600   0.0262   0.00782   0.00224  -0.0328   0.5879   0.4918
  -1.500   0.0367   0.00778   0.00223  -0.0326   0.5819   0.5018
  -1.400   0.0473   0.00779   0.00223  -0.0324   0.5758   0.5114
  -1.300   0.0577   0.00777   0.00222  -0.0323   0.5703   0.5203
  -1.200   0.0686   0.00776   0.00222  -0.0322   0.5645   0.5292
  -1.100   0.0793   0.00776   0.00221  -0.0320   0.5582   0.5370
  -1.000   0.0896   0.00776   0.00221  -0.0318   0.5521   0.5456
  -0.900   0.1007   0.00776   0.00221  -0.0317   0.5463   0.5541
  -0.800   0.1112   0.00774   0.00221  -0.0316   0.5399   0.5625
  -0.700   0.1216   0.00776   0.00221  -0.0314   0.5335   0.5714
  -0.600   0.1325   0.00775   0.00221  -0.0313   0.5277   0.5794
  -0.500   0.1431   0.00775   0.00221  -0.0311   0.5214   0.5877
  -0.400   0.1537   0.00777   0.00222  -0.0310   0.5149   0.5957
  -0.300   0.1643   0.00777   0.00223  -0.0308   0.5093   0.6034
  -0.200   0.1751   0.00777   0.00223  -0.0307   0.5035   0.6117
   0.000   0.1961   0.00780   0.00225  -0.0303   0.4914   0.6272
   0.100   0.2071   0.00780   0.00226  -0.0303   0.4860   0.6356
   0.200   0.2178   0.00781   0.00227  -0.0301   0.4799   0.6434
   0.300   0.2280   0.00783   0.00229  -0.0299   0.4738   0.6527
   0.400   0.2389   0.00785   0.00230  -0.0298   0.4684   0.6616
   0.500   0.2493   0.00784   0.00231  -0.0296   0.4625   0.6707
   0.600   0.2598   0.00786   0.00233  -0.0294   0.4563   0.6797
   0.700   0.2702   0.00789   0.00235  -0.0292   0.4505   0.6877
   0.800   0.2809   0.00789   0.00237  -0.0291   0.4447   0.6964
   1.000   0.3015   0.00795   0.00242  -0.0287   0.4320   0.7137
   1.100   0.3123   0.00796   0.00244  -0.0286   0.4263   0.7231
   1.200   0.3226   0.00798   0.00247  -0.0283   0.4200   0.7323
   1.300   0.3327   0.00802   0.00250  -0.0281   0.4137   0.7428
   1.400   0.3432   0.00803   0.00253  -0.0279   0.4084   0.7523
   1.500   0.3536   0.00805   0.00256  -0.0277   0.4027   0.7623
   1.600   0.3639   0.00810   0.00259  -0.0275   0.3966   0.7708
   1.700   0.3742   0.00812   0.00263  -0.0272   0.3913   0.7788
   1.800   0.3850   0.00815   0.00266  -0.0271   0.3860   0.7861
   1.900   0.3955   0.00820   0.00269  -0.0270   0.3803   0.7925
   2.000   0.4055   0.00825   0.00273  -0.0267   0.3745   0.7993
   2.100   0.4163   0.00828   0.00277  -0.0266   0.3698   0.8063
   2.200   0.4270   0.00832   0.00280  -0.0264   0.3644   0.8128
   2.300   0.4371   0.00837   0.00285  -0.0262   0.3588   0.8195
   2.400   0.4473   0.00843   0.00289  -0.0260   0.3536   0.8267
   2.600   0.4683   0.00851   0.00298  -0.0256   0.3439   0.8397
   2.700   0.4784   0.00858   0.00303  -0.0253   0.3388   0.8465
   2.800   0.4889   0.00864   0.00307  -0.0252   0.3345   0.8529
   2.900   0.4994   0.00867   0.00312  -0.0250   0.3306   0.8588
   3.000   0.5097   0.00872   0.00317  -0.0248   0.3265   0.8652
   3.100   0.5199   0.00879   0.00322  -0.0245   0.3225   0.8716
   3.200   0.5298   0.00887   0.00328  -0.0243   0.3182   0.8773
   3.300   0.5403   0.00890   0.00333  -0.0241   0.3154   0.8832
   3.400   0.5508   0.00895   0.00338  -0.0239   0.3123   0.8893
   3.500   0.5611   0.00901   0.00343  -0.0237   0.3090   0.8949
   3.600   0.5712   0.00908   0.00349  -0.0234   0.3057   0.9000
   3.700   0.5810   0.00916   0.00356  -0.0231   0.3024   0.9057
   3.800   0.5908   0.00923   0.00362  -0.0228   0.2992   0.9114
   3.900   0.6014   0.00928   0.00368  -0.0226   0.2972   0.9161
   4.000   0.6118   0.00933   0.00374  -0.0224   0.2951   0.9207
   4.100   0.6220   0.00939   0.00379  -0.0221   0.2929   0.9258
   4.200   0.6318   0.00945   0.00385  -0.0218   0.2907   0.9311
   4.300   0.6422   0.00953   0.00392  -0.0216   0.2885   0.9350
   4.400   0.6524   0.00961   0.00399  -0.0214   0.2861   0.9391
   4.500   0.6620   0.00971   0.00407  -0.0210   0.2837   0.9438
   4.600   0.6710   0.00979   0.00414  -0.0205   0.2815   0.9488
   4.700   0.6829   0.00984   0.00420  -0.0206   0.2803   0.9517
   4.800   0.6947   0.00991   0.00427  -0.0207   0.2788   0.9548
   4.900   0.7057   0.00997   0.00434  -0.0207   0.2773   0.9584
   5.000   0.7158   0.01004   0.00440  -0.0204   0.2757   0.9625
   5.100   0.7268   0.01011   0.00447  -0.0204   0.2742   0.9657
   5.200   0.7400   0.01020   0.00454  -0.0208   0.2726   0.9676
   5.300   0.7528   0.01030   0.00463  -0.0212   0.2709   0.9697
   5.400   0.7655   0.01040   0.00471  -0.0215   0.2691   0.9720
   5.500   0.7777   0.01052   0.00481  -0.0218   0.2672   0.9744
   5.600   0.7887   0.01064   0.00492  -0.0218   0.2651   0.9774
   5.700   0.8008   0.01072   0.00499  -0.0220   0.2640   0.9797
   5.800   0.8160   0.01079   0.00506  -0.0229   0.2630   0.9805
   5.900   0.8311   0.01086   0.00514  -0.0238   0.2620   0.9814
   6.000   0.8464   0.01094   0.00522  -0.0247   0.2608   0.9821
   6.100   0.8616   0.01102   0.00529  -0.0256   0.2596   0.9828
   6.200   0.8767   0.01110   0.00538  -0.0265   0.2582   0.9837
   6.300   0.8915   0.01119   0.00546  -0.0273   0.2568   0.9846
   6.400   0.9059   0.01129   0.00554  -0.0281   0.2555   0.9856
   6.500   0.9201   0.01139   0.00563  -0.0288   0.2541   0.9868
   6.600   0.9340   0.01149   0.00572  -0.0295   0.2527   0.9880
   6.700   0.9474   0.01161   0.00583  -0.0300   0.2512   0.9894
   6.800   0.9601   0.01175   0.00595  -0.0305   0.2495   0.9908
   6.900   0.9724   0.01191   0.00609  -0.0308   0.2477   0.9922
   7.000   0.9877   0.01196   0.00615  -0.0318   0.2470   0.9927
   7.100   1.0029   0.01202   0.00622  -0.0327   0.2462   0.9933
   7.200   1.0178   0.01208   0.00629  -0.0335   0.2453   0.9939
   7.300   1.0326   0.01215   0.00636  -0.0344   0.2443   0.9946
   7.400   1.0473   0.01222   0.00644  -0.0352   0.2431   0.9953
   7.500   1.0619   0.01230   0.00652  -0.0360   0.2420   0.9961
   7.600   1.0764   0.01238   0.00660  -0.0368   0.2408   0.9969
   7.700   1.0907   0.01248   0.00669  -0.0376   0.2395   0.9978
   7.800   1.1049   0.01258   0.00678  -0.0383   0.2382   0.9986
   7.900   1.1189   0.01269   0.00688  -0.0390   0.2369   0.9993
   8.000   1.1327   0.01281   0.00700  -0.0397   0.2354   1.0000
