  
       XFOIL         Version 6.99
  
 Calculated polar for: NACA 2218                                       
  
 1 1 Reynolds number fixed          Mach number fixed         
  
 xtrf =   0.283 (top)        1.000 (bottom)  
 Mach =   0.000     Re =     0.800 e 6     Ncrit =   9.000
  
   alpha    CL        CD       CDp       CM     Top_Xtr  Bot_Xtr
  ------ -------- --------- --------- -------- -------- --------
   2.045   0.4000   0.00895   0.00289  -0.0250   0.2828   0.8028
