  
       XFOIL         Version 6.99
  
 Calculated polar for: NACA 2218                                       
  
 1 1 Reynolds number fixed          Mach number fixed         
  
 xtrf =   0.111 (top)        1.000 (bottom)  
 Mach =   0.000     Re =     0.800 e 6     Ncrit =   9.000
  
   alpha    CL        CD       CDp       CM     Top_Xtr  Bot_Xtr
  ------ -------- --------- --------- -------- -------- --------
   2.242   0.4000   0.01053   0.00354  -0.0216   0.1111   0.8167
