  
       XFOIL         Version 6.99
  
 Calculated polar for: NACA 2218                                       
  
 1 1 Reynolds number fixed          Mach number fixed         
  
 xtrf =   0.323 (top)        1.000 (bottom)  
 Mach =   0.000     Re =     0.800 e 6     Ncrit =   9.000
  
   alpha    CL        CD       CDp       CM     Top_Xtr  Bot_Xtr
  ------ -------- --------- --------- -------- -------- --------
   2.000   0.4000   0.00861   0.00279  -0.0258   0.3232   0.7995
