  
       XFOIL         Version 6.99
  
 Calculated polar for: NACA 2218                                       
  
 1 1 Reynolds number fixed          Mach number fixed         
  
 xtrf =   0.100 (top)        1.000 (bottom)  
 Mach =   0.000     Re =     0.300 e 6     Ncrit =  12.000
  
   alpha    CL        CD       CDp       CM     Top_Xtr  Bot_Xtr
  ------ -------- --------- --------- -------- -------- --------
   2.310   0.4000   0.01515   0.00661  -0.0139   0.1000   0.9521
